Version 4
SHEET 1 2244 884
WIRE -944 -624 -1136 -624
WIRE -800 -624 -944 -624
WIRE -624 -624 -624 -704
WIRE -624 -624 -800 -624
WIRE -528 -624 -624 -624
WIRE -368 -624 -448 -624
WIRE -224 -624 -224 -704
WIRE -224 -624 -368 -624
WIRE -1136 -528 -1136 -624
WIRE -944 -528 -944 -624
WIRE -800 -528 -800 -624
WIRE -624 -528 -624 -624
WIRE -368 -528 -368 -624
WIRE -224 -528 -224 -624
WIRE -1136 -352 -1136 -448
WIRE -944 -352 -944 -464
WIRE -944 -352 -1136 -352
WIRE -800 -352 -800 -464
WIRE -800 -352 -944 -352
WIRE -624 -352 -624 -464
WIRE -624 -352 -800 -352
WIRE -368 -352 -368 -464
WIRE -368 -352 -624 -352
WIRE -224 -352 -224 -448
WIRE -224 -352 -368 -352
WIRE -1136 -320 -1136 -352
WIRE -304 -176 -384 -176
WIRE -64 -176 -144 -176
WIRE 944 -112 832 -112
WIRE 1152 -112 1024 -112
WIRE -64 -96 -64 -176
WIRE -384 -80 -384 -176
WIRE -224 -80 -224 -96
WIRE -224 -80 -384 -80
WIRE 512 32 448 32
WIRE 688 32 592 32
WIRE 832 32 832 -112
WIRE 832 32 752 32
WIRE 960 32 832 32
WIRE 1152 32 1152 -112
WIRE 1152 32 1024 32
WIRE -704 48 -768 48
WIRE -528 48 -624 48
WIRE -384 48 -384 -80
WIRE -384 48 -464 48
WIRE -256 48 -384 48
WIRE -64 48 -64 -16
WIRE -64 48 -192 48
WIRE 1424 160 1360 160
WIRE 1584 160 1504 160
WIRE 992 256 992 176
WIRE -240 272 -240 192
WIRE 832 272 832 32
WIRE 960 272 832 272
WIRE -384 288 -384 48
WIRE -272 288 -384 288
WIRE 1152 288 1152 32
WIRE 1152 288 1024 288
WIRE 1232 288 1152 288
WIRE 1360 288 1360 160
WIRE 1360 288 1296 288
WIRE 1424 288 1360 288
WIRE 1584 288 1584 160
WIRE 1584 288 1504 288
WIRE 1648 288 1584 288
WIRE -64 304 -64 48
WIRE -64 304 -208 304
WIRE 0 304 -64 304
WIRE 144 304 80 304
WIRE 336 304 144 304
WIRE 560 304 336 304
WIRE 672 304 560 304
WIRE 960 304 752 304
WIRE -848 320 -1152 320
WIRE -736 320 -848 320
WIRE -576 320 -672 320
WIRE -384 320 -496 320
WIRE -272 320 -384 320
WIRE 560 352 560 304
WIRE 336 368 336 304
WIRE 336 368 240 368
WIRE 1648 384 1648 288
WIRE 1648 384 1552 384
WIRE 1744 384 1648 384
WIRE 992 400 992 320
WIRE -240 416 -240 336
WIRE 336 416 336 368
WIRE 1552 416 1552 384
WIRE -1152 432 -1152 320
WIRE -848 432 -848 320
WIRE -384 432 -384 320
WIRE 144 432 144 304
WIRE 1744 480 1744 384
WIRE 240 496 240 368
WIRE 288 496 240 496
WIRE 560 496 560 416
WIRE 672 512 608 512
WIRE 1552 528 1552 480
WIRE 1552 528 1456 528
WIRE 1552 560 1552 528
WIRE 1856 560 1824 560
WIRE 1456 640 1456 528
WIRE 1472 640 1456 640
WIRE -1152 656 -1152 512
WIRE -848 656 -848 512
WIRE -848 656 -1152 656
WIRE -384 656 -384 512
WIRE 144 656 144 496
WIRE 336 656 336 512
WIRE 336 656 144 656
WIRE 560 656 560 592
WIRE 560 656 336 656
WIRE 672 656 672 512
WIRE 672 656 560 656
WIRE -1152 688 -1152 656
WIRE 336 688 336 656
WIRE 1552 752 1552 720
WIRE 1648 752 1552 752
WIRE 1744 752 1744 640
WIRE 1744 752 1648 752
WIRE 1648 784 1648 752
FLAG -624 -704 Vs
FLAG -1136 -320 0
FLAG -224 -704 Vb
FLAG -384 656 Vb
FLAG -240 416 0
FLAG -1152 688 0
FLAG -768 48 0
FLAG 336 688 Vb
FLAG 448 32 0
FLAG 992 176 Vs
FLAG 992 400 0
FLAG 1648 784 0
FLAG -240 192 Vs
FLAG 1856 560 OUT
SYMBOL Misc\\battery -1136 -544 R0
SYMATTR InstName Vbatt
SYMATTR Value 9
SYMBOL cap -960 -528 R0
SYMATTR InstName C10
SYMATTR Value 100n
SYMBOL polcap -816 -528 R0
SYMATTR InstName C9
SYMATTR Value 100µ
SYMBOL diode -640 -464 M180
WINDOW 0 24 64 Left 2
WINDOW 3 24 0 Left 2
SYMATTR InstName D1
SYMATTR Value 1N914
SYMBOL res -432 -640 R90
WINDOW 0 0 56 VBottom 2
WINDOW 3 32 56 VTop 2
SYMATTR InstName R13
SYMATTR Value 10k
SYMBOL res -240 -544 R0
SYMATTR InstName R14
SYMATTR Value 10k
SYMBOL polcap -384 -528 R0
SYMATTR InstName C11
SYMATTR Value 22µ
SYMBOL voltage -1152 416 R0
SYMATTR InstName Vin
SYMATTR Value wavefile=Clean.wav
SYMBOL res -480 304 R90
WINDOW 0 0 56 VBottom 2
WINDOW 3 32 56 VTop 2
SYMATTR InstName R1
SYMATTR Value 10k
SYMBOL cap -672 304 R90
WINDOW 0 0 32 VBottom 2
WINDOW 3 32 32 VTop 2
SYMATTR InstName C1
SYMATTR Value 22n
SYMBOL res -864 416 R0
SYMATTR InstName R2
SYMATTR Value 1Meg
SYMBOL res -400 416 R0
SYMATTR InstName R3
SYMATTR Value 470k
SYMBOL OpAmps\\opamp2 -240 240 R0
SYMATTR InstName OPA1
SYMATTR Value TL082
SYMBOL cap -192 32 R90
WINDOW 0 0 32 VBottom 2
WINDOW 3 32 32 VTop 2
SYMATTR InstName C2
SYMATTR Value 220p
SYMBOL res -80 -112 R0
SYMATTR InstName R4
SYMATTR Value 18k
SYMBOL cap -464 32 R90
WINDOW 0 0 32 VBottom 2
WINDOW 3 32 32 VTop 2
SYMATTR InstName C3
SYMATTR Value 68n
SYMBOL res -608 32 R90
WINDOW 0 0 56 VBottom 2
WINDOW 3 32 56 VTop 2
SYMATTR InstName R6
SYMATTR Value 2.2k
SYMBOL res 96 288 R90
WINDOW 0 0 56 VBottom 2
WINDOW 3 32 56 VTop 2
SYMATTR InstName R7
SYMATTR Value 10k
SYMBOL cap 128 432 R0
SYMATTR InstName C4
SYMATTR Value 1n
SYMBOL diode 544 352 R0
SYMATTR InstName D2
SYMATTR Value 1N34A
SYMBOL nmos 288 416 R0
SYMATTR InstName Q1
SYMATTR Value 2N7000
SYMBOL nmos 608 592 R180
SYMATTR InstName Q2
SYMATTR Value 2N7000
SYMBOL res 768 288 R90
WINDOW 0 0 56 VBottom 2
WINDOW 3 32 56 VTop 2
SYMATTR InstName R8
SYMATTR Value 10k
SYMBOL cap 1024 16 R90
WINDOW 0 0 32 VBottom 2
WINDOW 3 32 32 VTop 2
SYMATTR InstName C5
SYMATTR Value 220p
SYMBOL res 1040 -128 R90
WINDOW 0 0 56 VBottom 2
WINDOW 3 32 56 VTop 2
SYMATTR InstName R9
SYMATTR Value 150k
SYMBOL cap 752 16 R90
WINDOW 0 0 32 VBottom 2
WINDOW 3 32 32 VTop 2
SYMATTR InstName C6
SYMATTR Value 100n
SYMBOL res 608 16 R90
WINDOW 0 0 56 VBottom 2
WINDOW 3 32 56 VTop 2
SYMATTR InstName R10
SYMATTR Value 39k
SYMBOL cap 1296 272 R90
WINDOW 0 0 32 VBottom 2
WINDOW 3 32 32 VTop 2
SYMATTR InstName C7
SYMATTR Value 1µ
SYMBOL res 1520 144 R90
WINDOW 0 0 56 VBottom 2
WINDOW 3 32 56 VTop 2
SYMATTR InstName R11
SYMATTR Value 22k
SYMBOL res 1520 272 R90
WINDOW 0 0 56 VBottom 2
WINDOW 3 32 56 VTop 2
SYMATTR InstName R12
SYMATTR Value 33k
SYMBOL cap 1568 416 M0
SYMATTR InstName C8
SYMATTR Value 47n
SYMBOL LogarithmicPotentiometer -224 -176 R90
WINDOW 0 46 62 VLeft 2
SYMATTR InstName P1
SYMATTR SpiceLine Rp=500k x=10
SYMBOL LogarithmicPotentiometer 1744 560 M180
SYMATTR InstName P3
SYMATTR SpiceLine Rp=500k x=50
SYMBOL LinearPotentiometer 1552 640 M0
SYMATTR InstName P2
SYMATTR SpiceLine Rp=10k x=50
SYMBOL OpAmps\\opamp2 992 224 R0
SYMATTR InstName OPA2
SYMATTR Value TL082
TEXT -8 -600 Left 2 !.include TL082.txt
TEXT 0 -416 Left 2 !.tran 427s
TEXT -8 -536 Left 2 !.model 1N914 D(Is=2.52n Rs=.568 N=1.752 Cjo=4p M=.4 tt=20n Iave=200m Vpk=75 mfg=OnSemi type=silicon)
TEXT -8 -568 Left 2 !.model 1N34A D(Is=2.6u Rs=6.5 N=1.6 Cjo=.8p Eg=.67 Bv=25 Ibv=3m type=GePunctualContact)
TEXT -8 -504 Left 2 !.model 2N7000 VDMOS(Rg=3 Vto=1.6 Rd=0 Rs=.75 Rb=.14 Kp=.17 mtriode=1.25 Cgdmax=80p Cgdmin=12p Cgs=50p Cjo=50p Is=.04p Vds=60 Ron=2 Qg=1.5n)
TEXT 0 -384 Left 2 !.wave "Distorted.wav" 16 48k V(OUT)
TEXT -160 -192 Left 2 ;1
TEXT -216 -104 Left 2 ;2
TEXT -304 -192 Left 2 ;3
TEXT 1568 568 Left 2 ;1
TEXT 1480 624 Left 2 ;2
TEXT 1568 712 Left 2 ;3
TEXT 1720 632 Left 2 ;1
TEXT 1720 488 Left 2 ;3
TEXT 1816 576 Left 2 ;2
TEXT -192 -144 Left 2 ;500k
TEXT 1576 664 Left 2 ;10k
TEXT 1664 536 Left 2 ;500k
