Version 4
SHEET 1 2324 932
WIRE 944 -16 832 -16
WIRE 1152 -16 1024 -16
WIRE 512 128 448 128
WIRE 688 128 592 128
WIRE 832 128 832 -16
WIRE 832 128 752 128
WIRE 960 128 832 128
WIRE 1152 128 1152 -16
WIRE 1152 128 1024 128
WIRE 832 272 832 128
WIRE 960 272 832 272
WIRE 1152 288 1152 128
WIRE 1152 288 1024 288
WIRE 1232 288 1152 288
WIRE 1424 288 1296 288
WIRE 1648 288 1504 288
WIRE 960 304 656 304
WIRE 1648 384 1648 288
WIRE 1648 384 1520 384
WIRE 1792 384 1648 384
WIRE 656 416 656 304
WIRE 1792 448 1792 384
WIRE 1520 464 1520 384
WIRE 1792 592 1792 528
WIRE 1936 592 1792 592
WIRE 656 624 656 496
WIRE 1520 640 1520 528
WIRE 1792 656 1792 592
WIRE 1520 800 1520 720
WIRE 1648 800 1520 800
WIRE 1792 800 1792 736
WIRE 1792 800 1648 800
WIRE 1648 832 1648 800
FLAG 448 128 0
FLAG 1648 832 0
FLAG 1936 592 OUT
FLAG 656 624 0
SYMBOL cap 1024 112 R90
WINDOW 0 0 32 VBottom 2
WINDOW 3 32 32 VTop 2
SYMATTR InstName C5
SYMATTR Value 220p
SYMBOL res 1040 -32 R90
WINDOW 0 0 56 VBottom 2
WINDOW 3 32 56 VTop 2
SYMATTR InstName R9
SYMATTR Value 150k
SYMBOL cap 752 112 R90
WINDOW 0 0 32 VBottom 2
WINDOW 3 32 32 VTop 2
SYMATTR InstName C6
SYMATTR Value 100n
SYMBOL res 608 112 R90
WINDOW 0 0 56 VBottom 2
WINDOW 3 32 56 VTop 2
SYMATTR InstName R10
SYMATTR Value 39k
SYMBOL cap 1296 272 R90
WINDOW 0 0 32 VBottom 2
WINDOW 3 32 32 VTop 2
SYMATTR InstName C7
SYMATTR Value 1µ
SYMBOL res 1520 272 R90
WINDOW 0 0 56 VBottom 2
WINDOW 3 32 56 VTop 2
SYMATTR InstName Rsw
SYMATTR Value {Rf}
SYMBOL cap 1536 464 M0
SYMATTR InstName C8
SYMATTR Value 47n
SYMBOL IdealOpamp 992 288 R0
SYMATTR InstName OPA2
SYMBOL voltage 656 400 R0
SYMATTR InstName Vdist
SYMATTR Value VNN
SYMBOL res 1536 624 M0
SYMATTR InstName Rt
SYMATTR Value {Rtf}
SYMBOL res 1776 432 R0
SYMATTR InstName Rvb
SYMATTR Value {Rv2}
SYMBOL res 1776 640 R0
SYMATTR InstName Rva
SYMATTR Value {Rv1}
TEXT 1312 32 Left 2 !.step param Rf list 33k 13.2k
TEXT 1312 96 Left 2 !.param Rt1=Rtf*x+tol
TEXT 1312 64 Left 2 !.param Rt=10k Rv=500k tol=1u
TEXT 1312 128 Left 2 !.param Rv1=Rv*(a*pow(b,y)+c)+tol Rv2=Rv*(1-a*pow(b,y)-c)+tol
